30

N -5.836815 -0.000000 -11.133426
C -6.228216 0.000000 -10.038393
C -6.810715 0.000000 -8.733639
C -8.239262 -0.000000 -8.759438
N -9.396955 -0.000000 -8.869259
C -6.058694 -0.000000 -7.551517
C -4.631369 -0.000000 -7.515366
F -3.964998 0.000000 -8.661145
C -3.886085 -0.000000 -6.357676
F -2.590984 -0.000000 -6.616216
C -4.436940 -0.000000 -5.000382
C -3.655381 0.000000 -3.768448
C -4.206171 -0.000000 -2.411231
F -5.501175 0.000000 -2.152688
C -3.460891 0.000000 -1.253430
F -4.127227 0.000000 -0.108043
C -2.033391 -0.000000 -1.217026
C -1.281394 -0.000000 -0.034895
C -1.863846 -0.000000 1.269814
N -2.255679 -0.000000 2.364645
C 0.147092 -0.000000 -0.009114
N 1.304731 0.000000 0.100263
C -1.460710 0.000000 -2.525046
F -0.140621 0.000000 -2.641589
C -2.193125 -0.000000 -3.690957
F -1.411036 0.000000 -4.754559
C -5.899249 0.000000 -5.077867
F -6.681392 -0.000000 -4.014172
C -6.631605 -0.000000 -6.243690
F -7.952044 0.000000 -6.127318
